**********************************************************************
* Duncan Amplfication Generic Triode Model (PSpice Implementation)
* Copyright (C)1997-2004 Duncan Amplfication
* Unauthorised Commercial use prohibited
* Please refer to documentation at http://www.duncanamps.com
*
* $MODEL_VERSION$ 4.1
* $AUTOGENERATED$ 23/01/2004 20:24:26 
**********************************************************************
**********************************************************************
* GENERIC: 12AU7 / ECC82
* MODEL:   12AU7
* NOTES:   Heater model for one half of heater (6.3V)
**********************************************************************
.SUBCKT 12AU7 A G K H1 H2
XV1 A G K H1 H2 TRIODE
+PARAMS: RCO= 6.2 RHO= 42 HTV= 6.3 HWU= 10.5 
+ LIP= 1 LIF= 0.0037 RAF= 0.024778659 RAS= 2.040491735 CDO= 0 
+ RAP= 0.18 ERP= 1.35 
+ MU0= 14.27427 MUR= 0.005857103 EMC= 0.0000236 
+ GCO= 0 GCF= 0.00012 
+ CGA=1.60E-12 CGK=1.80E-12 CAK=4.50E-13
.ENDS
**********************************************************************
* GENERIC: 12AU7 / ECC82
* MODEL:   NH12AU7
* NOTES:   No heater model
**********************************************************************