.MODEL BD139 npn( IS=1e-09 BF=222.664 NF=0.85 VAF=36.4079 IKF=0.166126 ISE=5.03418e-09 NE=1.45313 BR=1.35467 NR=1.33751 VAR=142.931 IKR=1.66126 ISC=5.02557e-09 NC=3.10227 RB=26.9143 IRB=0.1 RBM=0.1 RE=0.000472454 RC=1.04109 XTB=0.727762 XTI=1.04311 EG=1.05 CJE=1e-11 VJE=0.75 MJE=0.33 TF=1e-09 XTF=1 VTF=10 ITF=0.01 CJC=1e-11 VJC=0.75 MJC=0.33 XCJC=0.9 FC=0.5 CJS=0 VJS=0.75 MJS=0.5 TR=1e-07 PTF=0 KF=0 AF=1 Vceo=80 Icrating=1.5 mfg=Various)
.MODEL BD140 pnp( IS=1e-09 BF=650.842 NF=0.85 VAF=10 IKF=0.0950125 ISE=1e-08 NE=1.54571 BR=56.177 NR=1.5 VAR=2.11267 IKR=0.950125 ISC=1e-08 NC=3.58527 RB=41.7566 IRB=0.1 RBM=0.108893 RE=0.000347052 RC=1.32566 XTB=19.5239 XTI=1 EG=1.05 CJE=1e-11 VJE=0.75 MJE=0.33 TF=1e-09 XTF=1 VTF=10 ITF=0.01 CJC=1e-11 VJC=0.75 MJC=0.33 XCJC=0.9 FC=0.5 CJS=0 VJS=0.75 MJS=0.5 TR=1e-07 PTF=0 KF=0 AF=1 Vceo=80 Icrating=1.5 mfg=Various)
.MODEL MJE2955T pnp( IS=4.14254e-10 BF=449.16 NF=0.85 VAF=17.4911 IKF=0.414206 ISE=1e-08 NE=1.47014 BR=0.1 NR=1.09325 VAR=174.911 IKR=4.14206 ISC=7.59792e-09 NC=3.02799 RB=20.1795 IRB=0.1 RBM=0.1 RE=0.000499379 RC=0.0813684 XTB=0.1 XTI=1.16399 EG=1.05 CJE=9.97416e-08 VJE=0.416937 MJE=0.61618 TF=9.98874e-09 XTF=1.35736 VTF=0.997021 ITF=0.999788 CJC=4.99998e-10 VJC=0.40025 MJC=0.410011 XCJC=0.803124 FC=0.661649 CJS=0 VJS=0.75 MJS=0.5 TR=1e-07 PTF=0 KF=0 AF=1 Vceo=60 Icrating=10 mfg=Various)
.MODEL MJE3055T npn( IS=1.92238e-13 BF=327.43 NF=0.85 VAF=36.105 IKF=0.620037 ISE=1.4602e-10 NE=1.50926 BR=0.654697 NR=0.935367 VAR=361.05 IKR=6.20037 ISC=6.85154e-12 NC=2.96871 RB=16.05 IRB=0.1 RBM=0.161446 RE=0.000602331 RC=0.0632768 XTB=0.943656 XTI=1.12302 EG=1.05 CJE=9.23675e-08 VJE=0.506151 MJE=0.607139 TF=1e-08 XTF=1.35736 VTF=0.997047 ITF=0.999796 CJC=5e-10 VJC=0.400198 MJC=0.410184 XCJC=0.803125 FC=0.658133 CJS=0 VJS=0.75 MJS=0.5 TR=1e-07 PTF=0 KF=0 AF=1 Vceo=60 Icrating=10 mfg=Various)
.MODEL TIP31A npn( IS=1e-09 BF=3656.16 NF=1.23899 VAF=10 IKF=0.0333653 ISE=1e-08 NE=2.29374 BR=0.1 NR=1.5 VAR=100 IKR=0.333653 ISC=1e-08 NC=1.75728 RB=6.15083 IRB=100 RBM=0.00113049 RE=0.0001 RC=0.0491489 XTB=50 XTI=1 EG=1.05 CJE=3.26475e-10 VJE=0.446174 MJE=0.464221 TF=2.06218e-09 XTF=15.0842 VTF=25.7317 ITF=0.001 CJC=3.07593e-10 VJC=0.775484 MJC=0.476498 XCJC=0.750493 FC=0.796407 CJS=0 VJS=0.75 MJS=0.5 TR=9.57121e-06 PTF=0 KF=0 AF=1 Vceo=60 Icrating=3 mfg=Various)
.MODEL TIP32A pnp( IS=1e-09 BF=134.366 NF=1.29961 VAF=10 IKF=0.742988 ISE=1e-16 NE=1.40014 BR=0.1 NR=1.46599 VAR=100 IKR=3.21978 ISC=1e-16 NC=2.71657 RB=7.44433 IRB=2.41268 RBM=0.218936 RE=0.0152284 RC=0.0761421 XTB=0.1 XTI=1 EG=1.05 CJE=3.26474e-10 VJE=0.446178 MJE=0.464223 TF=1e-08 XTF=3.50642 VTF=8.2848 ITF=0.0305862 CJC=3.07595e-10 VJC=0.77548 MJC=0.476497 XCJC=0.799334 FC=0.8 CJS=0 VJS=0.75 MJS=0.5 TR=9.57121e-06 PTF=0 KF=0 AF=1 Vceo=60 Icrating=3 mfg=Various)
.MODEL TIP35A npn( IS=7.88586e-11 BF=256.257 NF=0.951481 VAF=25.9112 IKF=6.91656 ISE=6.4e-12 NE=3.4 BR=4.49993 NR=1.08286 VAR=4.40924 IKR=3.69854 ISC=3.9e-13 NC=3.99 RB=20.929 IRB=0.1 RBM=0.135255 RE=0.000998231 RC=0.0563125 XTB=0.1 XTI=1 EG=1.10826 CJE=1e-07 VJE=0.421306 MJE=0.693953 TF=1e-08 XTF=1.35777 VTF=1.00063 ITF=0.9994 CJC=5e-10 VJC=0.400277 MJC=0.409924 XCJC=0.803124 FC=0.720291 CJS=0 VJS=0.75 MJS=0.5 TR=4.99888e-07 PTF=0 KF=0 AF=1 Vceo=60 Icrating=25 mfg=Various)
.MODEL TIP36A pnp( IS=7.88586e-11 BF=256.257 NF=0.951481 VAF=25.9112 IKF=6.91657 ISE=6.4e-12 NE=3.4 BR=4.49993 NR=1.08286 VAR=4.40924 IKR=3.69854 ISC=3.9e-13 NC=3.99 RB=20.929 IRB=0.1 RBM=0.135255 RE=0.000998231 RC=0.0563123 XTB=0.1 XTI=1 EG=1.10826 CJE=1e-07 VJE=0.4 MJE=0.735975 TF=1e-08 XTF=1.35769 VTF=1 ITF=0.99952 CJC=5e-10 VJC=0.400257 MJC=0.409987 XCJC=0.80312 FC=0.724857 CJS=0 VJS=0.75 MJS=0.5 TR=2.03153e-07 PTF=0 KF=0 AF=1 Vceo=60 Icrating=25 mfg=Various)
